2-Selectivity_analysis_in_Medium_Voltage_Distribution_Networks/EDS_Protection/test_case/master-python.dss
clear


new circuit.test_case
~ basekv=13.8 pu=1.0 angle=0 r1=20 x1=40 r0=20 x0=60


new linecode.3ph
~ nphases=3 r1=0.348900 x1=0.426198 r0=0.588811 x0=1.296120 units=km

new linecode.1ph
~ nphases=1 r1=0.958962 x1=0.541276 r0=0.958962 x0=0.541276 units=km


new line.AB
~ bus1=sourcebus bus2=B length=0.020 units=km linecode=3ph

new line.BC
~ bus1=B bus2=C length=0.020 units=km linecode=3ph

new line.CD
~ bus1=C bus2=D length=0.020 units=km linecode=3ph

new line.CE
~ bus1=C bus2=E length=0.020 units=km linecode=1ph

new line.DF
~ bus1=D bus2=F length=0.020 units=km linecode=1ph

new line.DG
~ bus1=D bus2=G length=0.020 units=km linecode=1ph

new line.GH
~ bus1=G bus2=H length=0.020 units=km linecode=1ph